Circuit: * C:\Users\Mi\Desktop\Study\3_course\2SHEM\spice\Draft2.asc

Direct Newton iteration failed to find .op point.  (Use ".option noopiter" to skip.)
Starting Gmin stepping
Gmin = 10
Gmin = 1.07374
Gmin = 0.115292
Gmin = 0.0123794
Gmin = 0.00132923
Gmin = 0.000142725
Gmin = 1.5325e-005
Gmin = 1.6455e-006
Gmin = 1.76685e-007
Gmin = 1.89714e-008
Gmin = 2.03704e-009
Gmin = 2.18725e-010
Gmin = 2.34854e-011
Gmin = 2.52173e-012
Gmin = 2.70769e-013
Gmin = 0
Gmin stepping succeeded in finding the operating point.


Date: Thu Mar 07 15:16:36 2024
Total elapsed time: 0.586 seconds.

tnom = 27
temp = 27
method = modified trap
totiter = 3679
traniter = 3249
tranpoints = 1268
accept = 1199
rejected = 69
matrix size = 530
fillins = 6
solver = Normal
Thread vector: 99.6/75.6[11] 19.0/11.0[11] 4.3/2.8[8] 1.4/1.9[1]  2592/500
Matrix Compiler1: 76.14 KB object code size  14.5/5.9/[4.3]
Matrix Compiler2: 66.11 KB object code size  6.7/5.7/[2.7]

