Circuit: * C:\Users\Mi\Desktop\Study\3_course\2SHEM\spice\Draft4.asc

Direct Newton iteration for .op point succeeded.

Date: Mon Mar 04 23:33:18 2024
Total elapsed time: 2.387 seconds.

tnom = 27
temp = 27
method = modified trap
totiter = 320414
traniter = 320408
tranpoints = 160185
accept = 160167
rejected = 18
matrix size = 22
fillins = 0
solver = Normal
Matrix Compiler1: 2.14 KB object code size  0.4/0.2/[0.1]
Matrix Compiler2:     184 opcodes  0.2/[0.2]/0.2

