Circuit: * C:\Users\Mi\Desktop\Study\3_course\2SHEM\spice\Draft5.asc

Direct Newton iteration failed to find .op point.  (Use ".option noopiter" to skip.)
Starting Gmin stepping
Gmin = 10
Gmin = 1.07374
Gmin = 0.115292
Gmin = 0.0123794
Gmin = 0.00132923
Gmin = 0.000142725
Gmin = 1.5325e-005
Gmin = 1.6455e-006
Gmin = 1.76685e-007
Gmin = 1.89714e-008
Gmin = 2.03704e-009
Gmin = 2.18725e-010
Gmin = 2.34854e-011
Gmin = 2.52173e-012
Gmin = 2.70769e-013
Gmin = 0
Gmin stepping succeeded in finding the operating point.


Date: Tue Mar 05 22:58:42 2024
Total elapsed time: 0.651 seconds.

tnom = 27
temp = 27
method = modified trap
totiter = 4377
traniter = 3947
tranpoints = 1422
accept = 1320
rejected = 102
matrix size = 530
fillins = 6
solver = Normal
Thread vector: 138.9/73.0[11] 19.4/10.6[11] 5.0/3.0[10] 1.4/1.7[1]  2592/500
Matrix Compiler1: 76.14 KB object code size  14.1/5.6/[4.3]
Matrix Compiler2: 66.11 KB object code size  6.7/5.8/[2.8]

