Circuit: * C:\Users\Mi\Desktop\Study\3_course\2SHEM\spice\SUMTEST.asc

Direct Newton iteration failed to find .op point.  (Use ".option noopiter" to skip.)
Starting Gmin stepping
Gmin = 10
Gmin = 1.07374
Gmin = 0.115292
Gmin = 0.0123794
Gmin = 0.00132923
Gmin = 0.000142725
Gmin = 1.5325e-005
Gmin = 1.6455e-006
Gmin = 1.76685e-007
Gmin = 1.89714e-008
Gmin = 2.03704e-009
Gmin = 2.18725e-010
Gmin = 2.34854e-011
Gmin = 2.52173e-012
Gmin = 2.70769e-013
Gmin = 0
Gmin stepping succeeded in finding the operating point.


Date: Mon Mar 18 19:40:34 2024
Total elapsed time: 1.484 seconds.

tnom = 27
temp = 27
method = modified trap
totiter = 3664
traniter = 3242
tranpoints = 1290
accept = 1223
rejected = 67
matrix size = 530
fillins = 14
solver = Normal
Thread vector: 207.9/115.8[11] 27.6/16.1[11] 8.8/5.8[8] 2.3/3.0[1]  2592/500
Matrix Compiler1: 78.38 KB object code size  22.0/9.4/[6.7]
Matrix Compiler2: 64.31 KB object code size  10.6/10.3/[4.2]

