Circuit: * C:\Users\Mi\Desktop\Study\3_course\2SHEM\spice\test.asc

Direct Newton iteration for .op point succeeded.

Date: Mon Mar 18 19:41:20 2024
Total elapsed time: 3.134 seconds.

tnom = 27
temp = 27
method = modified trap
totiter = 320522
traniter = 320516
tranpoints = 160205
accept = 160181
rejected = 24
matrix size = 24
fillins = 0
solver = Normal
Matrix Compiler1: 2.26 KB object code size  0.6/0.3/[0.2]
Matrix Compiler2: 2.54 KB object code size  0.2/0.4/[0.2]

